*Heading
** Job name: VAFW8RL Model name: VAFW8-RL
** Generated by: Abaqus/CAE 2024
*Preprint, echo=NO, model=NO, history=NO, contact=NO
**
** PARTS
**
*Part, name=cyllinder_1
*Node
      1,         -68.,           0.,         37.5
      2,          68.,           0.,         37.5
      3,          68.,           0.,          75.
      4,         -68.,           0.,          75.
      5,          68.,           0.,           0.
      6,         -68.,           0.,           0.
      7,          68.,           0.,        112.5
      8,         -68.,           0.,        112.5
      9,          68.,           0.,         150.
     10,         -68.,           0.,         150.
     11,          68.,           0.,        187.5
     12,         -68.,           0.,        187.5
     13,          68.,           0.,         225.
     14,         -68.,           0.,         225.
     15,          68.,           0.,        262.5
     16,         -68.,           0.,        262.5
     17,          68.,           0.,         300.
     18,         -68.,           0.,         300.
     19,  -67.9664459,  -2.13593173,         37.5
     20,  -67.8658142,  -4.26975536,         37.5
** ... 19180 like lines cut
*Element, type=S4R
   1,    1,   19, 1975,  236
   2,   19,   20, 1976, 1975
   3,   20,   21, 1977, 1976
   4,   21,   22, 1978, 1977
   5,   22,   23, 1979, 1978
   6,   23,   24, 1980, 1979
   7,   24,   25, 1981, 1980
   8,   25,   26, 1982, 1981
   9,   26,   27, 1983, 1982
  10,   27,   28, 1984, 1983
  11,   28,   29, 1985, 1984
  12,   29,   30, 1986, 1985
  13,   30,   31, 1987, 1986
  14,   31,   32, 1988, 1987
  15,   32,   33, 1989, 1988
  16,   33,   34, 1990, 1989
  17,   34,   35, 1991, 1990
  18,   35,   36, 1992, 1991
  19,   36,   37, 1993, 1992
  20,   37,   38, 1994, 1993
** ... 18980 like lines cut
*Node
  19201,           0.,           0.,         300.
*Nset, nset=cyllinder_1-RefPt_, internal
19201, 
*Orientation, name=Ori-7
0., 0., 1., 1., 0., 0.
3, 0.
** Region: (C7-1: Generated From Layup)
*Elset, elset=C7-1
    1,    2,    3,    4,    5,    6,    7,    8,    9,   10,   11,   12,   13,   14,   15,   16
   17,   18,   19,   20,   21,   22,   23,   24,   25,   26,   27,   28,   29,   30,   31,   32
   33,   34,   35,   36,   37,   38,   39,   40,   41,   42,   43,   44,   45,   46,   47,   48
   49,   50,   51,   52,   53,   54,   55,   56,   57,   58,   59,   60,   61,   62,   63,   64
   65,   66,   67,   68,   69,   70,   71,   72,   73,   74,   75,   76,   77,   78,   79,   80
   81,   82,   83,   84,   85,   86,   87,   88,   89,   90,   91,   92,   93,   94,   95,   96
   97,   98,   99,  100,  101,  102,  103,  104,  105,  106,  107,  108,  109,  110,  111,  112
  113,  114,  115,  116,  117,  118,  119,  120,  121,  122,  123,  124,  125,  126,  127,  128
  129,  130,  131,  132,  133,  134,  135,  136,  137,  138,  139,  140,  141,  142,  143,  144
  145,  146,  147,  148,  149,  150,  151,  152,  153,  154,  155,  156,  157,  158,  159,  160
  161,  162,  163,  164,  165,  166,  167,  168,  169,  170,  171,  172,  173,  174,  175,  176
  177,  178,  179,  180,  181,  182,  183,  184,  185,  186,  187,  188,  189,  190,  191,  192
  193,  194,  195,  196,  197,  198,  199,  200,  201,  202,  203,  204,  205,  206,  207,  208
  209,  210,  211,  212,  213,  214,  215,  216,  217,  218,  219,  220,  221,  222,  223,  224
  225,  226,  227,  228,  229,  230,  231,  232,  233,  234,  235,  236,  237,  238,  239,  240
  241,  242,  243,  244,  245,  246,  247,  248,  249,  250,  251,  252,  253,  254,  255,  256
  257,  258,  259,  260,  261,  262,  263,  264,  265,  266,  267,  268,  269,  270,  271,  272
  273,  274,  275,  276,  277,  278,  279,  280,  281,  282,  283,  284,  285,  286,  287,  288
  289,  290,  291,  292,  293,  294,  295,  296,  297,  298,  299,  300,  301,  302,  303,  304
  305,  306,  307,  308,  309,  310,  311,  312,  313,  314,  315,  316,  317,  318,  319,  320
** ... 118 like lines cut
** Section: C7-1
*Shell Section, elset=C7-1, composite, orientation=Ori-7, layup=C7
0.2, 3, T700_IDEAL, 57., Ply-1
0.2, 3, T700_IDEAL, -57., Ply-2
*Orientation, name=Ori-8
0., 0., 1., 1., 0., 0.
3, 0.
** Region: (C8-1: Generated From Layup)
*Elset, elset=C8-1
  1101,  1102,  1103,  1104,  1105,  1106,  1107,  1108,  1109,  1110,  1111,  1112,  1113,  1114,  1115,  1116
  1117,  1118,  1119,  1120,  1121,  1122,  1123,  1124,  1125,  1126,  1127,  1128,  1129,  1130,  1131,  1132
  1133,  1134,  1135,  1136,  1137,  1138,  1139,  1140,  1141,  1142,  1143,  1144,  1145,  1146,  1147,  1148
  1149,  1150,  1151,  1152,  1153,  1154,  1155,  1156,  1157,  1158,  1159,  1160,  1161,  1162,  1163,  1164
  1165,  1166,  1167,  1168,  1169,  1170,  1171,  1172,  1173,  1174,  1175,  1176,  1177,  1178,  1179,  1180
  1181,  1182,  1183,  1184,  1185,  1186,  1187,  1188,  1189,  1190,  1191,  1192,  1193,  1194,  1195,  1196
  1197,  1198,  1199,  1200,  1201,  1202,  1203,  1204,  1205,  1206,  1207,  1208,  1209,  1210,  1211,  1212
  1213,  1214,  1215,  1216,  1217,  1218,  1219,  1220,  1221,  1222,  1223,  1224,  1225,  1226,  1227,  1228
  1229,  1230,  1231,  1232,  1233,  1234,  1235,  1236,  1237,  1238,  1239,  1240,  1241,  1242,  1243,  1244
  1245,  1246,  1247,  1248,  1249,  1250,  1251,  1252,  1253,  1254,  1255,  1256,  1257,  1258,  1259,  1260
  1261,  1262,  1263,  1264,  1265,  1266,  1267,  1268,  1269,  1270,  1271,  1272,  1273,  1274,  1275,  1276
  1277,  1278,  1279,  1280,  1281,  1282,  1283,  1284,  1285,  1286,  1287,  1288,  1289,  1290,  1291,  1292
  1293,  1294,  1295,  1296,  1297,  1298,  1299,  1300,  1301,  1302,  1303,  1304,  1305,  1306,  1307,  1308
  1309,  1310,  1311,  1312,  1313,  1314,  1315,  1316,  1317,  1318,  1319,  1320,  1321,  1322,  1323,  1324
  1325,  1326,  1327,  1328,  1329,  1330,  1331,  1332,  1333,  1334,  1335,  1336,  1337,  1338,  1339,  1340
  1341,  1342,  1343,  1344,  1345,  1346,  1347,  1348,  1349,  1350,  1351,  1352,  1353,  1354,  1355,  1356
  1357,  1358,  1359,  1360,  1361,  1362,  1363,  1364,  1365,  1366,  1367,  1368,  1369,  1370,  1371,  1372
  1373,  1374,  1375,  1376,  1377,  1378,  1379,  1380,  1381,  1382,  1383,  1384,  1385,  1386,  1387,  1388
  1389,  1390,  1391,  1392,  1393,  1394,  1395,  1396,  1397,  1398,  1399,  1400,  1401,  1402,  1403,  1404
  1405,  1406,  1407,  1408,  1409,  1410,  1411,  1412,  1413,  1414,  1415,  1416,  1417,  1418,  1419,  1420
** ... 130 like lines cut
** Section: C8-1
*Shell Section, elset=C8-1, composite, orientation=Ori-8, layup=C8
0.2, 3, T700_IDEAL, 55., Ply-1
0.2, 3, T700_IDEAL, -55., Ply-2
*Orientation, name=Ori-6
0., 0., 1., 1., 0., 0.
3, 0.
** Region: (C6-1: Generated From Layup)
*Elset, elset=C6-1
 2301, 2302, 2303, 2304, 2305, 2306, 2307, 2308, 2309, 2310, 2311, 2312, 2313, 2314, 2315, 2316
 2317, 2318, 2319, 2320, 2321, 2322, 2323, 2324, 2325, 2326, 2327, 2328, 2329, 2330, 2331, 2332
 2333, 2334, 2335, 2336, 2337, 2338, 2339, 2340, 2341, 2342, 2343, 2344, 2345, 2346, 2347, 2348
 2349, 2350, 2351, 2352, 2353, 2354, 2355, 2356, 2357, 2358, 2359, 2360, 2361, 2362, 2363, 2364
 2365, 2366, 2367, 2368, 2369, 2370, 2371, 2372, 2373, 2374, 2375, 2376, 2377, 2378, 2379, 2380
 2381, 2382, 2383, 2384, 2385, 2386, 2387, 2388, 2389, 2390, 2391, 2392, 2393, 2394, 2395, 2396
 2397, 2398, 2399, 2400, 2401, 2402, 2403, 2404, 2405, 2406, 2407, 2408, 2409, 2410, 2411, 2412
 2413, 2414, 2415, 2416, 2417, 2418, 2419, 2420, 2421, 2422, 2423, 2424, 2425, 2426, 2427, 2428
 2429, 2430, 2431, 2432, 2433, 2434, 2435, 2436, 2437, 2438, 2439, 2440, 2441, 2442, 2443, 2444
 2445, 2446, 2447, 2448, 2449, 2450, 2451, 2452, 2453, 2454, 2455, 2456, 2457, 2458, 2459, 2460
 2461, 2462, 2463, 2464, 2465, 2466, 2467, 2468, 2469, 2470, 2471, 2472, 2473, 2474, 2475, 2476
 2477, 2478, 2479, 2480, 2481, 2482, 2483, 2484, 2485, 2486, 2487, 2488, 2489, 2490, 2491, 2492
 2493, 2494, 2495, 2496, 2497, 2498, 2499, 2500, 2501, 2502, 2503, 2504, 2505, 2506, 2507, 2508
 2509, 2510, 2511, 2512, 2513, 2514, 2515, 2516, 2517, 2518, 2519, 2520, 2521, 2522, 2523, 2524
 2525, 2526, 2527, 2528, 2529, 2530, 2531, 2532, 2533, 2534, 2535, 2536, 2537, 2538, 2539, 2540
 2541, 2542, 2543, 2544, 2545, 2546, 2547, 2548, 2549, 2550, 2551, 2552, 2553, 2554, 2555, 2556
 2557, 2558, 2559, 2560, 2561, 2562, 2563, 2564, 2565, 2566, 2567, 2568, 2569, 2570, 2571, 2572
 2573, 2574, 2575, 2576, 2577, 2578, 2579, 2580, 2581, 2582, 2583, 2584, 2585, 2586, 2587, 2588
 2589, 2590, 2591, 2592, 2593, 2594, 2595, 2596, 2597, 2598, 2599, 2600, 2601, 2602, 2603, 2604
 2605, 2606, 2607, 2608, 2609, 2610, 2611, 2612, 2613, 2614, 2615, 2616, 2617, 2618, 2619, 2620
** ... 130 like lines cut
** Section: C6-1
*Shell Section, elset=C6-1, composite, orientation=Ori-6, layup=C6
0.2, 3, T700_IDEAL, 61., Ply-1
0.2, 3, T700_IDEAL, -61., Ply-2
*Orientation, name=Ori-5
0., 0., 1., 1., 0., 0.
3, 0.
** Region: (C5-1: Generated From Layup)
*Elset, elset=C5-1
 4601, 4602, 4603, 4604, 4605, 4606, 4607, 4608, 4609, 4610, 4611, 4612, 4613, 4614, 4615, 4616
 4617, 4618, 4619, 4620, 4621, 4622, 4623, 4624, 4625, 4626, 4627, 4628, 4629, 4630, 4631, 4632
 4633, 4634, 4635, 4636, 4637, 4638, 4639, 4640, 4641, 4642, 4643, 4644, 4645, 4646, 4647, 4648
 4649, 4650, 4651, 4652, 4653, 4654, 4655, 4656, 4657, 4658, 4659, 4660, 4661, 4662, 4663, 4664
 4665, 4666, 4667, 4668, 4669, 4670, 4671, 4672, 4673, 4674, 4675, 4676, 4677, 4678, 4679, 4680
 4681, 4682, 4683, 4684, 4685, 4686, 4687, 4688, 4689, 4690, 4691, 4692, 4693, 4694, 4695, 4696
 4697, 4698, 4699, 4700, 4701, 4702, 4703, 4704, 4705, 4706, 4707, 4708, 4709, 4710, 4711, 4712
 4713, 4714, 4715, 4716, 4717, 4718, 4719, 4720, 4721, 4722, 4723, 4724, 4725, 4726, 4727, 4728
 4729, 4730, 4731, 4732, 4733, 4734, 4735, 4736, 4737, 4738, 4739, 4740, 4741, 4742, 4743, 4744
 4745, 4746, 4747, 4748, 4749, 4750, 4751, 4752, 4753, 4754, 4755, 4756, 4757, 4758, 4759, 4760
 4761, 4762, 4763, 4764, 4765, 4766, 4767, 4768, 4769, 4770, 4771, 4772, 4773, 4774, 4775, 4776
 4777, 4778, 4779, 4780, 4781, 4782, 4783, 4784, 4785, 4786, 4787, 4788, 4789, 4790, 4791, 4792
 4793, 4794, 4795, 4796, 4797, 4798, 4799, 4800, 4801, 4802, 4803, 4804, 4805, 4806, 4807, 4808
 4809, 4810, 4811, 4812, 4813, 4814, 4815, 4816, 4817, 4818, 4819, 4820, 4821, 4822, 4823, 4824
 4825, 4826, 4827, 4828, 4829, 4830, 4831, 4832, 4833, 4834, 4835, 4836, 4837, 4838, 4839, 4840
 4841, 4842, 4843, 4844, 4845, 4846, 4847, 4848, 4849, 4850, 4851, 4852, 4853, 4854, 4855, 4856
 4857, 4858, 4859, 4860, 4861, 4862, 4863, 4864, 4865, 4866, 4867, 4868, 4869, 4870, 4871, 4872
 4873, 4874, 4875, 4876, 4877, 4878, 4879, 4880, 4881, 4882, 4883, 4884, 4885, 4886, 4887, 4888
 4889, 4890, 4891, 4892, 4893, 4894, 4895, 4896, 4897, 4898, 4899, 4900, 4901, 4902, 4903, 4904
 4905, 4906, 4907, 4908, 4909, 4910, 4911, 4912, 4913, 4914, 4915, 4916, 4917, 4918, 4919, 4920
** ... 130 like lines cut
** Section: C5-1
*Shell Section, elset=C5-1, composite, orientation=Ori-5, layup=C5
0.2, 3, T700_IDEAL, 57., Ply-1
0.2, 3, T700_IDEAL, -57., Ply-2
*Orientation, name=Ori-4
0., 0., 1., 1., 0., 0.
3, 0.
** Region: (C4-1: Generated From Layup)
*Elset, elset=C4-1
  7001,  7002,  7003,  7004,  7005,  7006,  7007,  7008,  7009,  7010,  7011,  7012,  7013,  7014,  7015,  7016
  7017,  7018,  7019,  7020,  7021,  7022,  7023,  7024,  7025,  7026,  7027,  7028,  7029,  7030,  7031,  7032
  7033,  7034,  7035,  7036,  7037,  7038,  7039,  7040,  7041,  7042,  7043,  7044,  7045,  7046,  7047,  7048
  7049,  7050,  7051,  7052,  7053,  7054,  7055,  7056,  7057,  7058,  7059,  7060,  7061,  7062,  7063,  7064
  7065,  7066,  7067,  7068,  7069,  7070,  7071,  7072,  7073,  7074,  7075,  7076,  7077,  7078,  7079,  7080
  7081,  7082,  7083,  7084,  7085,  7086,  7087,  7088,  7089,  7090,  7091,  7092,  7093,  7094,  7095,  7096
  7097,  7098,  7099,  7100,  7101,  7102,  7103,  7104,  7105,  7106,  7107,  7108,  7109,  7110,  7111,  7112
  7113,  7114,  7115,  7116,  7117,  7118,  7119,  7120,  7121,  7122,  7123,  7124,  7125,  7126,  7127,  7128
  7129,  7130,  7131,  7132,  7133,  7134,  7135,  7136,  7137,  7138,  7139,  7140,  7141,  7142,  7143,  7144
  7145,  7146,  7147,  7148,  7149,  7150,  7151,  7152,  7153,  7154,  7155,  7156,  7157,  7158,  7159,  7160
  7161,  7162,  7163,  7164,  7165,  7166,  7167,  7168,  7169,  7170,  7171,  7172,  7173,  7174,  7175,  7176
  7177,  7178,  7179,  7180,  7181,  7182,  7183,  7184,  7185,  7186,  7187,  7188,  7189,  7190,  7191,  7192
  7193,  7194,  7195,  7196,  7197,  7198,  7199,  7200,  7201,  7202,  7203,  7204,  7205,  7206,  7207,  7208
  7209,  7210,  7211,  7212,  7213,  7214,  7215,  7216,  7217,  7218,  7219,  7220,  7221,  7222,  7223,  7224
  7225,  7226,  7227,  7228,  7229,  7230,  7231,  7232,  7233,  7234,  7235,  7236,  7237,  7238,  7239,  7240
  7241,  7242,  7243,  7244,  7245,  7246,  7247,  7248,  7249,  7250,  7251,  7252,  7253,  7254,  7255,  7256
  7257,  7258,  7259,  7260,  7261,  7262,  7263,  7264,  7265,  7266,  7267,  7268,  7269,  7270,  7271,  7272
  7273,  7274,  7275,  7276,  7277,  7278,  7279,  7280,  7281,  7282,  7283,  7284,  7285,  7286,  7287,  7288
  7289,  7290,  7291,  7292,  7293,  7294,  7295,  7296,  7297,  7298,  7299,  7300,  7301,  7302,  7303,  7304
  7305,  7306,  7307,  7308,  7309,  7310,  7311,  7312,  7313,  7314,  7315,  7316,  7317,  7318,  7319,  7320
** ... 130 like lines cut
** Section: C4-1
*Shell Section, elset=C4-1, composite, orientation=Ori-4, layup=C4
0.2, 3, T700_IDEAL, 57., Ply-1
0.2, 3, T700_IDEAL, -57., Ply-2
*Orientation, name=Ori-3
0., 0., 1., 1., 0., 0.
3, 0.
** Region: (C3-1: Generated From Layup)
*Elset, elset=C3-1
  9401,  9402,  9403,  9404,  9405,  9406,  9407,  9408,  9409,  9410,  9411,  9412,  9413,  9414,  9415,  9416
  9417,  9418,  9419,  9420,  9421,  9422,  9423,  9424,  9425,  9426,  9427,  9428,  9429,  9430,  9431,  9432
  9433,  9434,  9435,  9436,  9437,  9438,  9439,  9440,  9441,  9442,  9443,  9444,  9445,  9446,  9447,  9448
  9449,  9450,  9451,  9452,  9453,  9454,  9455,  9456,  9457,  9458,  9459,  9460,  9461,  9462,  9463,  9464
  9465,  9466,  9467,  9468,  9469,  9470,  9471,  9472,  9473,  9474,  9475,  9476,  9477,  9478,  9479,  9480
  9481,  9482,  9483,  9484,  9485,  9486,  9487,  9488,  9489,  9490,  9491,  9492,  9493,  9494,  9495,  9496
  9497,  9498,  9499,  9500,  9501,  9502,  9503,  9504,  9505,  9506,  9507,  9508,  9509,  9510,  9511,  9512
  9513,  9514,  9515,  9516,  9517,  9518,  9519,  9520,  9521,  9522,  9523,  9524,  9525,  9526,  9527,  9528
  9529,  9530,  9531,  9532,  9533,  9534,  9535,  9536,  9537,  9538,  9539,  9540,  9541,  9542,  9543,  9544
  9545,  9546,  9547,  9548,  9549,  9550,  9551,  9552,  9553,  9554,  9555,  9556,  9557,  9558,  9559,  9560
  9561,  9562,  9563,  9564,  9565,  9566,  9567,  9568,  9569,  9570,  9571,  9572,  9573,  9574,  9575,  9576
  9577,  9578,  9579,  9580,  9581,  9582,  9583,  9584,  9585,  9586,  9587,  9588,  9589,  9590,  9591,  9592
  9593,  9594,  9595,  9596,  9597,  9598,  9599,  9600,  9601,  9602,  9603,  9604,  9605,  9606,  9607,  9608
  9609,  9610,  9611,  9612,  9613,  9614,  9615,  9616,  9617,  9618,  9619,  9620,  9621,  9622,  9623,  9624
  9625,  9626,  9627,  9628,  9629,  9630,  9631,  9632,  9633,  9634,  9635,  9636,  9637,  9638,  9639,  9640
  9641,  9642,  9643,  9644,  9645,  9646,  9647,  9648,  9649,  9650,  9651,  9652,  9653,  9654,  9655,  9656
  9657,  9658,  9659,  9660,  9661,  9662,  9663,  9664,  9665,  9666,  9667,  9668,  9669,  9670,  9671,  9672
  9673,  9674,  9675,  9676,  9677,  9678,  9679,  9680,  9681,  9682,  9683,  9684,  9685,  9686,  9687,  9688
  9689,  9690,  9691,  9692,  9693,  9694,  9695,  9696,  9697,  9698,  9699,  9700,  9701,  9702,  9703,  9704
  9705,  9706,  9707,  9708,  9709,  9710,  9711,  9712,  9713,  9714,  9715,  9716,  9717,  9718,  9719,  9720
** ... 130 like lines cut
** Section: C3-1
*Shell Section, elset=C3-1, composite, orientation=Ori-3, layup=C3
0.2, 3, T700_IDEAL, 61., Ply-1
0.2, 3, T700_IDEAL, -61., Ply-2
*Orientation, name=Ori-2
0., 0., 1., 1., 0., 0.
3, 0.
** Region: (C2-1: Generated From Layup)
*Elset, elset=C2-1
 11801, 11802, 11803, 11804, 11805, 11806, 11807, 11808, 11809, 11810, 11811, 11812, 11813, 11814, 11815, 11816
 11817, 11818, 11819, 11820, 11821, 11822, 11823, 11824, 11825, 11826, 11827, 11828, 11829, 11830, 11831, 11832
 11833, 11834, 11835, 11836, 11837, 11838, 11839, 11840, 11841, 11842, 11843, 11844, 11845, 11846, 11847, 11848
 11849, 11850, 11851, 11852, 11853, 11854, 11855, 11856, 11857, 11858, 11859, 11860, 11861, 11862, 11863, 11864
 11865, 11866, 11867, 11868, 11869, 11870, 11871, 11872, 11873, 11874, 11875, 11876, 11877, 11878, 11879, 11880
 11881, 11882, 11883, 11884, 11885, 11886, 11887, 11888, 11889, 11890, 11891, 11892, 11893, 11894, 11895, 11896
 11897, 11898, 11899, 11900, 11901, 11902, 11903, 11904, 11905, 11906, 11907, 11908, 11909, 11910, 11911, 11912
 11913, 11914, 11915, 11916, 11917, 11918, 11919, 11920, 11921, 11922, 11923, 11924, 11925, 11926, 11927, 11928
 11929, 11930, 11931, 11932, 11933, 11934, 11935, 11936, 11937, 11938, 11939, 11940, 11941, 11942, 11943, 11944
 11945, 11946, 11947, 11948, 11949, 11950, 11951, 11952, 11953, 11954, 11955, 11956, 11957, 11958, 11959, 11960
 11961, 11962, 11963, 11964, 11965, 11966, 11967, 11968, 11969, 11970, 11971, 11972, 11973, 11974, 11975, 11976
 11977, 11978, 11979, 11980, 11981, 11982, 11983, 11984, 11985, 11986, 11987, 11988, 11989, 11990, 11991, 11992
 11993, 11994, 11995, 11996, 11997, 11998, 11999, 12000, 12001, 12002, 12003, 12004, 12005, 12006, 12007, 12008
 12009, 12010, 12011, 12012, 12013, 12014, 12015, 12016, 12017, 12018, 12019, 12020, 12021, 12022, 12023, 12024
 12025, 12026, 12027, 12028, 12029, 12030, 12031, 12032, 12033, 12034, 12035, 12036, 12037, 12038, 12039, 12040
 12041, 12042, 12043, 12044, 12045, 12046, 12047, 12048, 12049, 12050, 12051, 12052, 12053, 12054, 12055, 12056
 12057, 12058, 12059, 12060, 12061, 12062, 12063, 12064, 12065, 12066, 12067, 12068, 12069, 12070, 12071, 12072
 12073, 12074, 12075, 12076, 12077, 12078, 12079, 12080, 12081, 12082, 12083, 12084, 12085, 12086, 12087, 12088
 12089, 12090, 12091, 12092, 12093, 12094, 12095, 12096, 12097, 12098, 12099, 12100, 12101, 12102, 12103, 12104
 12105, 12106, 12107, 12108, 12109, 12110, 12111, 12112, 12113, 12114, 12115, 12116, 12117, 12118, 12119, 12120
** ... 130 like lines cut
** Section: C2-1
*Shell Section, elset=C2-1, composite, orientation=Ori-2, layup=C2
0.2, 3, T700_IDEAL, 57., Ply-1
0.2, 3, T700_IDEAL, -57., Ply-2
*Orientation, name=Ori-1
0., 0., 1., 1., 0., 0.
3, 0.
** Region: (C1-1: Generated From Layup)
*Elset, elset=C1-1
 14201, 14202, 14203, 14204, 14205, 14206, 14207, 14208, 14209, 14210, 14211, 14212, 14213, 14214, 14215, 14216
 14217, 14218, 14219, 14220, 14221, 14222, 14223, 14224, 14225, 14226, 14227, 14228, 14229, 14230, 14231, 14232
 14233, 14234, 14235, 14236, 14237, 14238, 14239, 14240, 14241, 14242, 14243, 14244, 14245, 14246, 14247, 14248
 14249, 14250, 14251, 14252, 14253, 14254, 14255, 14256, 14257, 14258, 14259, 14260, 14261, 14262, 14263, 14264
 14265, 14266, 14267, 14268, 14269, 14270, 14271, 14272, 14273, 14274, 14275, 14276, 14277, 14278, 14279, 14280
 14281, 14282, 14283, 14284, 14285, 14286, 14287, 14288, 14289, 14290, 14291, 14292, 14293, 14294, 14295, 14296
 14297, 14298, 14299, 14300, 14301, 14302, 14303, 14304, 14305, 14306, 14307, 14308, 14309, 14310, 14311, 14312
 14313, 14314, 14315, 14316, 14317, 14318, 14319, 14320, 14321, 14322, 14323, 14324, 14325, 14326, 14327, 14328
 14329, 14330, 14331, 14332, 14333, 14334, 14335, 14336, 14337, 14338, 14339, 14340, 14341, 14342, 14343, 14344
 14345, 14346, 14347, 14348, 14349, 14350, 14351, 14352, 14353, 14354, 14355, 14356, 14357, 14358, 14359, 14360
 14361, 14362, 14363, 14364, 14365, 14366, 14367, 14368, 14369, 14370, 14371, 14372, 14373, 14374, 14375, 14376
 14377, 14378, 14379, 14380, 14381, 14382, 14383, 14384, 14385, 14386, 14387, 14388, 14389, 14390, 14391, 14392
 14393, 14394, 14395, 14396, 14397, 14398, 14399, 14400, 14401, 14402, 14403, 14404, 14405, 14406, 14407, 14408
 14409, 14410, 14411, 14412, 14413, 14414, 14415, 14416, 14417, 14418, 14419, 14420, 14421, 14422, 14423, 14424
 14425, 14426, 14427, 14428, 14429, 14430, 14431, 14432, 14433, 14434, 14435, 14436, 14437, 14438, 14439, 14440
 14441, 14442, 14443, 14444, 14445, 14446, 14447, 14448, 14449, 14450, 14451, 14452, 14453, 14454, 14455, 14456
 14457, 14458, 14459, 14460, 14461, 14462, 14463, 14464, 14465, 14466, 14467, 14468, 14469, 14470, 14471, 14472
 14473, 14474, 14475, 14476, 14477, 14478, 14479, 14480, 14481, 14482, 14483, 14484, 14485, 14486, 14487, 14488
 14489, 14490, 14491, 14492, 14493, 14494, 14495, 14496, 14497, 14498, 14499, 14500, 14501, 14502, 14503, 14504
 14505, 14506, 14507, 14508, 14509, 14510, 14511, 14512, 14513, 14514, 14515, 14516, 14517, 14518, 14519, 14520
** ... 130 like lines cut
** Section: C1-1
*Shell Section, elset=C1-1, composite, orientation=Ori-1, layup=C1
0.2, 3, T700_IDEAL, 55., Ply-1
0.2, 3, T700_IDEAL, -55., Ply-2
*End Part
**  
**
** ASSEMBLY
**
*Assembly, name=Assembly
**  
*Instance, name=cyllinder_1-1, part=cyllinder_1
*End Instance
**  
*Nset, nset=Bottom, instance=cyllinder_1-1
    5,    6,  347,  348,  349,  350,  351,  352,  353,  354,  355,  356,  357,  358,  359,  360
  361,  362,  363,  364,  365,  366,  367,  368,  369,  370,  371,  372,  373,  374,  375,  376
  377,  378,  379,  380,  381,  382,  383,  384,  385,  386,  387,  388,  389,  390,  391,  392
  393,  394,  395,  396,  397,  398,  399,  400,  401,  402,  403,  404,  405,  406,  407,  408
  409,  410,  411,  412,  413,  414,  415,  416,  417,  418,  419,  420,  421,  422,  423,  424
  425,  426,  427,  428,  429,  430,  431,  432,  433,  434,  435,  436,  437,  438,  439,  440
  441,  442,  443,  444,  445, 1876, 1877, 1878, 1879, 1880, 1881, 1882, 1883, 1884, 1885, 1886
 1887, 1888, 1889, 1890, 1891, 1892, 1893, 1894, 1895, 1896, 1897, 1898, 1899, 1900, 1901, 1902
 1903, 1904, 1905, 1906, 1907, 1908, 1909, 1910, 1911, 1912, 1913, 1914, 1915, 1916, 1917, 1918
 1919, 1920, 1921, 1922, 1923, 1924, 1925, 1926, 1927, 1928, 1929, 1930, 1931, 1932, 1933, 1934
 1935, 1936, 1937, 1938, 1939, 1940, 1941, 1942, 1943, 1944, 1945, 1946, 1947, 1948, 1949, 1950
 1951, 1952, 1953, 1954, 1955, 1956, 1957, 1958, 1959, 1960, 1961, 1962, 1963, 1964, 1965, 1966
 1967, 1968, 1969, 1970, 1971, 1972, 1973, 1974
*Elset, elset=Bottom, instance=cyllinder_1-1
  2201,  2202,  2203,  2204,  2205,  2206,  2207,  2208,  2209,  2210,  2211,  2212,  2213,  2214,  2215,  2216
  2217,  2218,  2219,  2220,  2221,  2222,  2223,  2224,  2225,  2226,  2227,  2228,  2229,  2230,  2231,  2232
  2233,  2234,  2235,  2236,  2237,  2238,  2239,  2240,  2241,  2242,  2243,  2244,  2245,  2246,  2247,  2248
  2249,  2250,  2251,  2252,  2253,  2254,  2255,  2256,  2257,  2258,  2259,  2260,  2261,  2262,  2263,  2264
  2265,  2266,  2267,  2268,  2269,  2270,  2271,  2272,  2273,  2274,  2275,  2276,  2277,  2278,  2279,  2280
  2281,  2282,  2283,  2284,  2285,  2286,  2287,  2288,  2289,  2290,  2291,  2292,  2293,  2294,  2295,  2296
  2297,  2298,  2299,  2300, 18901, 18902, 18903, 18904, 18905, 18906, 18907, 18908, 18909, 18910, 18911, 18912
 18913, 18914, 18915, 18916, 18917, 18918, 18919, 18920, 18921, 18922, 18923, 18924, 18925, 18926, 18927, 18928
 18929, 18930, 18931, 18932, 18933, 18934, 18935, 18936, 18937, 18938, 18939, 18940, 18941, 18942, 18943, 18944
 18945, 18946, 18947, 18948, 18949, 18950, 18951, 18952, 18953, 18954, 18955, 18956, 18957, 18958, 18959, 18960
 18961, 18962, 18963, 18964, 18965, 18966, 18967, 18968, 18969, 18970, 18971, 18972, 18973, 18974, 18975, 18976
 18977, 18978, 18979, 18980, 18981, 18982, 18983, 18984, 18985, 18986, 18987, 18988, 18989, 18990, 18991, 18992
 18993, 18994, 18995, 18996, 18997, 18998, 18999, 19000
*Nset, nset=RP_TOP, instance=cyllinder_1-1
 19201,
*Elset, elset=ShellElems, instance=cyllinder_1-1, generate
     1,  19000,      1
*Nset, nset=Top, instance=cyllinder_1-1
   17,   18, 1568, 1569, 1570, 1571, 1572, 1573, 1574, 1575, 1576, 1577, 1578, 1579, 1580, 1581
 1582, 1583, 1584, 1585, 1586, 1587, 1588, 1589, 1590, 1591, 1592, 1593, 1594, 1595, 1596, 1597
 1598, 1599, 1600, 1601, 1602, 1603, 1604, 1605, 1606, 1607, 1608, 1609, 1610, 1611, 1612, 1613
 1614, 1615, 1616, 1617, 1618, 1619, 1620, 1621, 1622, 1623, 1624, 1625, 1626, 1627, 1628, 1629
 1630, 1631, 1632, 1633, 1634, 1635, 1636, 1637, 1638, 1639, 1640, 1641, 1642, 1643, 1644, 1645
 1646, 1647, 1648, 1649, 1650, 1651, 1652, 1653, 1654, 1655, 1656, 1657, 1658, 1659, 1660, 1661
 1662, 1663, 1664, 1665, 1666, 1777, 1778, 1779, 1780, 1781, 1782, 1783, 1784, 1785, 1786, 1787
 1788, 1789, 1790, 1791, 1792, 1793, 1794, 1795, 1796, 1797, 1798, 1799, 1800, 1801, 1802, 1803
 1804, 1805, 1806, 1807, 1808, 1809, 1810, 1811, 1812, 1813, 1814, 1815, 1816, 1817, 1818, 1819
 1820, 1821, 1822, 1823, 1824, 1825, 1826, 1827, 1828, 1829, 1830, 1831, 1832, 1833, 1834, 1835
 1836, 1837, 1838, 1839, 1840, 1841, 1842, 1843, 1844, 1845, 1846, 1847, 1848, 1849, 1850, 1851
 1852, 1853, 1854, 1855, 1856, 1857, 1858, 1859, 1860, 1861, 1862, 1863, 1864, 1865, 1866, 1867
 1868, 1869, 1870, 1871, 1872, 1873, 1874, 1875
*Elset, elset=Top, instance=cyllinder_1-1
 15301, 15302, 15303, 15304, 15305, 15306, 15307, 15308, 15309, 15310, 15311, 15312, 15313, 15314, 15315, 15316
 15317, 15318, 15319, 15320, 15321, 15322, 15323, 15324, 15325, 15326, 15327, 15328, 15329, 15330, 15331, 15332
 15333, 15334, 15335, 15336, 15337, 15338, 15339, 15340, 15341, 15342, 15343, 15344, 15345, 15346, 15347, 15348
 15349, 15350, 15351, 15352, 15353, 15354, 15355, 15356, 15357, 15358, 15359, 15360, 15361, 15362, 15363, 15364
 15365, 15366, 15367, 15368, 15369, 15370, 15371, 15372, 15373, 15374, 15375, 15376, 15377, 15378, 15379, 15380
 15381, 15382, 15383, 15384, 15385, 15386, 15387, 15388, 15389, 15390, 15391, 15392, 15393, 15394, 15395, 15396
 15397, 15398, 15399, 15400, 17701, 17702, 17703, 17704, 17705, 17706, 17707, 17708, 17709, 17710, 17711, 17712
 17713, 17714, 17715, 17716, 17717, 17718, 17719, 17720, 17721, 17722, 17723, 17724, 17725, 17726, 17727, 17728
 17729, 17730, 17731, 17732, 17733, 17734, 17735, 17736, 17737, 17738, 17739, 17740, 17741, 17742, 17743, 17744
 17745, 17746, 17747, 17748, 17749, 17750, 17751, 17752, 17753, 17754, 17755, 17756, 17757, 17758, 17759, 17760
 17761, 17762, 17763, 17764, 17765, 17766, 17767, 17768, 17769, 17770, 17771, 17772, 17773, 17774, 17775, 17776
 17777, 17778, 17779, 17780, 17781, 17782, 17783, 17784, 17785, 17786, 17787, 17788, 17789, 17790, 17791, 17792
 17793, 17794, 17795, 17796, 17797, 17798, 17799, 17800
*Nset, nset=_PickedSet9, internal, instance=cyllinder_1-1
 19201,
*Nset, nset=_PickedSet17, internal, instance=cyllinder_1-1
    5,    6,  347,  348,  349,  350,  351,  352,  353,  354,  355,  356,  357,  358,  359,  360
  361,  362,  363,  364,  365,  366,  367,  368,  369,  370,  371,  372,  373,  374,  375,  376
  377,  378,  379,  380,  381,  382,  383,  384,  385,  386,  387,  388,  389,  390,  391,  392
  393,  394,  395,  396,  397,  398,  399,  400,  401,  402,  403,  404,  405,  406,  407,  408
  409,  410,  411,  412,  413,  414,  415,  416,  417,  418,  419,  420,  421,  422,  423,  424
  425,  426,  427,  428,  429,  430,  431,  432,  433,  434,  435,  436,  437,  438,  439,  440
  441,  442,  443,  444,  445, 1876, 1877, 1878, 1879, 1880, 1881, 1882, 1883, 1884, 1885, 1886
 1887, 1888, 1889, 1890, 1891, 1892, 1893, 1894, 1895, 1896, 1897, 1898, 1899, 1900, 1901, 1902
 1903, 1904, 1905, 1906, 1907, 1908, 1909, 1910, 1911, 1912, 1913, 1914, 1915, 1916, 1917, 1918
 1919, 1920, 1921, 1922, 1923, 1924, 1925, 1926, 1927, 1928, 1929, 1930, 1931, 1932, 1933, 1934
 1935, 1936, 1937, 1938, 1939, 1940, 1941, 1942, 1943, 1944, 1945, 1946, 1947, 1948, 1949, 1950
 1951, 1952, 1953, 1954, 1955, 1956, 1957, 1958, 1959, 1960, 1961, 1962, 1963, 1964, 1965, 1966
 1967, 1968, 1969, 1970, 1971, 1972, 1973, 1974
*Elset, elset=_PickedSet17, internal, instance=cyllinder_1-1
  2201,  2202,  2203,  2204,  2205,  2206,  2207,  2208,  2209,  2210,  2211,  2212,  2213,  2214,  2215,  2216
  2217,  2218,  2219,  2220,  2221,  2222,  2223,  2224,  2225,  2226,  2227,  2228,  2229,  2230,  2231,  2232
  2233,  2234,  2235,  2236,  2237,  2238,  2239,  2240,  2241,  2242,  2243,  2244,  2245,  2246,  2247,  2248
  2249,  2250,  2251,  2252,  2253,  2254,  2255,  2256,  2257,  2258,  2259,  2260,  2261,  2262,  2263,  2264
  2265,  2266,  2267,  2268,  2269,  2270,  2271,  2272,  2273,  2274,  2275,  2276,  2277,  2278,  2279,  2280
  2281,  2282,  2283,  2284,  2285,  2286,  2287,  2288,  2289,  2290,  2291,  2292,  2293,  2294,  2295,  2296
  2297,  2298,  2299,  2300, 18901, 18902, 18903, 18904, 18905, 18906, 18907, 18908, 18909, 18910, 18911, 18912
 18913, 18914, 18915, 18916, 18917, 18918, 18919, 18920, 18921, 18922, 18923, 18924, 18925, 18926, 18927, 18928
 18929, 18930, 18931, 18932, 18933, 18934, 18935, 18936, 18937, 18938, 18939, 18940, 18941, 18942, 18943, 18944
 18945, 18946, 18947, 18948, 18949, 18950, 18951, 18952, 18953, 18954, 18955, 18956, 18957, 18958, 18959, 18960
 18961, 18962, 18963, 18964, 18965, 18966, 18967, 18968, 18969, 18970, 18971, 18972, 18973, 18974, 18975, 18976
 18977, 18978, 18979, 18980, 18981, 18982, 18983, 18984, 18985, 18986, 18987, 18988, 18989, 18990, 18991, 18992
 18993, 18994, 18995, 18996, 18997, 18998, 18999, 19000
*Nset, nset=_PickedSet19, internal, instance=cyllinder_1-1
 19201,
*Elset, elset=_TopEdgeSurface_E3, internal, instance=cyllinder_1-1
 15301, 15302, 15303, 15304, 15305, 15306, 15307, 15308, 15309, 15310, 15311, 15312, 15313, 15314, 15315, 15316
 15317, 15318, 15319, 15320, 15321, 15322, 15323, 15324, 15325, 15326, 15327, 15328, 15329, 15330, 15331, 15332
 15333, 15334, 15335, 15336, 15337, 15338, 15339, 15340, 15341, 15342, 15343, 15344, 15345, 15346, 15347, 15348
 15349, 15350, 15351, 15352, 15353, 15354, 15355, 15356, 15357, 15358, 15359, 15360, 15361, 15362, 15363, 15364
 15365, 15366, 15367, 15368, 15369, 15370, 15371, 15372, 15373, 15374, 15375, 15376, 15377, 15378, 15379, 15380
 15381, 15382, 15383, 15384, 15385, 15386, 15387, 15388, 15389, 15390, 15391, 15392, 15393, 15394, 15395, 15396
 15397, 15398, 15399, 15400, 17701, 17702, 17703, 17704, 17705, 17706, 17707, 17708, 17709, 17710, 17711, 17712
 17713, 17714, 17715, 17716, 17717, 17718, 17719, 17720, 17721, 17722, 17723, 17724, 17725, 17726, 17727, 17728
 17729, 17730, 17731, 17732, 17733, 17734, 17735, 17736, 17737, 17738, 17739, 17740, 17741, 17742, 17743, 17744
 17745, 17746, 17747, 17748, 17749, 17750, 17751, 17752, 17753, 17754, 17755, 17756, 17757, 17758, 17759, 17760
 17761, 17762, 17763, 17764, 17765, 17766, 17767, 17768, 17769, 17770, 17771, 17772, 17773, 17774, 17775, 17776
 17777, 17778, 17779, 17780, 17781, 17782, 17783, 17784, 17785, 17786, 17787, 17788, 17789, 17790, 17791, 17792
 17793, 17794, 17795, 17796, 17797, 17798, 17799, 17800
*Surface, type=ELEMENT, name=TopEdgeSurface
_TopEdgeSurface_E3, E3
*Elset, elset=__PickedSurf8_E3, internal, instance=cyllinder_1-1
 15301, 15302, 15303, 15304, 15305, 15306, 15307, 15308, 15309, 15310, 15311, 15312, 15313, 15314, 15315, 15316
 15317, 15318, 15319, 15320, 15321, 15322, 15323, 15324, 15325, 15326, 15327, 15328, 15329, 15330, 15331, 15332
 15333, 15334, 15335, 15336, 15337, 15338, 15339, 15340, 15341, 15342, 15343, 15344, 15345, 15346, 15347, 15348
 15349, 15350, 15351, 15352, 15353, 15354, 15355, 15356, 15357, 15358, 15359, 15360, 15361, 15362, 15363, 15364
 15365, 15366, 15367, 15368, 15369, 15370, 15371, 15372, 15373, 15374, 15375, 15376, 15377, 15378, 15379, 15380
 15381, 15382, 15383, 15384, 15385, 15386, 15387, 15388, 15389, 15390, 15391, 15392, 15393, 15394, 15395, 15396
 15397, 15398, 15399, 15400, 17701, 17702, 17703, 17704, 17705, 17706, 17707, 17708, 17709, 17710, 17711, 17712
 17713, 17714, 17715, 17716, 17717, 17718, 17719, 17720, 17721, 17722, 17723, 17724, 17725, 17726, 17727, 17728
 17729, 17730, 17731, 17732, 17733, 17734, 17735, 17736, 17737, 17738, 17739, 17740, 17741, 17742, 17743, 17744
 17745, 17746, 17747, 17748, 17749, 17750, 17751, 17752, 17753, 17754, 17755, 17756, 17757, 17758, 17759, 17760
 17761, 17762, 17763, 17764, 17765, 17766, 17767, 17768, 17769, 17770, 17771, 17772, 17773, 17774, 17775, 17776
 17777, 17778, 17779, 17780, 17781, 17782, 17783, 17784, 17785, 17786, 17787, 17788, 17789, 17790, 17791, 17792
 17793, 17794, 17795, 17796, 17797, 17798, 17799, 17800
*Surface, type=ELEMENT, name=_PickedSurf8, internal
__PickedSurf8_E3, E3
** Constraint: TopCoupling
*Coupling, constraint name=TopCoupling, ref node=_PickedSet9, surface=_PickedSurf8
*Kinematic
1, 1
2, 2
3, 3
*End Assembly
*Amplitude, name=Amp-1, definition=SMOOTH STEP
             0.,              0.,              1.,              1.
** 
** MATERIALS
** 
*Material, name=T700_IDEAL
*Density
 1.6e-09,
*Elastic, type=LAMINA
141000.,9500., 0.32,4000.,4000.,2100.
** 
** BOUNDARY CONDITIONS
** 
** Name: Bottom_BC Type: Displacement/Rotation
*Boundary
_PickedSet17, 1, 1
_PickedSet17, 2, 2
_PickedSet17, 3, 3
_PickedSet17, 4, 4
_PickedSet17, 5, 5
_PickedSet17, 6, 6
** ----------------------------------------------------------------
** 
** STEP: LinearBuckle
** 
*Step, name=LinearBuckle, nlgeom=NO, perturbation
*Buckle, eigensolver=lanczos
5, 0., , , 
** 
** BOUNDARY CONDITIONS
** 
** Name: Bottom_BC Type: Displacement/Rotation
*Boundary, op=NEW, load case=1
_PickedSet17, 1, 1
_PickedSet17, 2, 2
_PickedSet17, 3, 3
*Boundary, op=NEW, load case=2
_PickedSet17, 1, 1
_PickedSet17, 2, 2
_PickedSet17, 3, 3
** 
** LOADS
** 
** Name: Top_Load   Type: Concentrated force
*Cload
_PickedSet19, 3, -1.
** 
** OUTPUT REQUESTS
** 
*Restart, write, frequency=0
** 
** FIELD OUTPUT: F-Output-1
** 
*Output, field
*Node Output
RF, U
*Element Output, directions=YES
E, ENER, S
*End Step
